/*--------------------------------*- C++ -*----------------------------------*\ 
| =========                 |                                                 | 
| \\      /  F ield         | OpenFOAM: The Open Source CFD Toolbox           | 
|  \\    /   O peration     | Version:  3.0.x                                 | 
|   \\  /    A nd           | Web:      www.OpenFOAM.com                      | 
|    \\/     M anipulation  |                                                 | 
\*---------------------------------------------------------------------------*/ 
FoamFile                                                                        
{                                                                               
    version     2.0;                                                            
    format      ascii;                                                          
    class       dictionary;                                                     
    object      blockMeshDict;                                                  
}                                                                               
// * * * * * * * * * * * * * * * * * * * * * * * * * * * * * * * * * * * * * // 

convertToMeters 0.001000; 

vertices 
( 
    (0.000000 75.000000 0.000000)
    (0.000000 0.000000 0.000000)
    (0.000000 -75.000000 0.000000)
    (65.000000 62.697126 0.000000)
    (65.000000 0.000000 0.000000)
    (65.000000 -62.697126 0.000000)
    (280.095740 225.239446 0.000000)
    (280.095740 75.079815 0.000000)
    (280.095740 0.000000 0.000000)
    (280.095740 -75.079815 0.000000)
    (280.095740 -225.239446 0.000000)
    (1501.596303 600.638521 0.000000)
    (1501.596303 300.319261 0.000000)
    (1501.596303 0.000000 0.000000)
    (1501.596303 -300.319261 0.000000)
    (1501.596303 -600.638521 0.000000)
    (0.000000 75.000000 -0.100000)
    (0.000000 0.000000 -0.100000)
    (0.000000 -75.000000 -0.100000)
    (65.000000 62.697126 -0.100000)
    (65.000000 0.000000 -0.100000)
    (65.000000 -62.697126 -0.100000)
    (280.095740 225.239446 -0.100000)
    (280.095740 75.079815 -0.100000)
    (280.095740 0.000000 -0.100000)
    (280.095740 -75.079815 -0.100000)
    (280.095740 -225.239446 -0.100000)
    (1501.596303 600.638521 -0.100000)
    (1501.596303 300.319261 -0.100000)
    (1501.596303 0.000000 -0.100000)
    (1501.596303 -300.319261 -0.100000)
    (1501.596303 -600.638521 -0.100000)
); 

blocks 
( 
    hex (1 0 3 4 17 16 19 20) (15 40 1) simpleGrading (0.125 0.25 1)
    hex (2 1 4 5 18 17 20 21) (15 40 1) simpleGrading (8 0.25 1)
    hex (4 3 7 8 20 19 23 24) (15 80 1) simpleGrading (0.125 8 1)
    hex (5 4 8 9 21 20 24 25) (15 80 1) simpleGrading (8 8 1)
    hex (7 6 11 12 23 22 27 28) (10 80 1) simpleGrading (8 40 1)
    hex (8 7 12 13 24 23 28 29) (15 80 1) simpleGrading (0.125 40 1)
    hex (9 8 13 14 25 24 29 30) (15 80 1) simpleGrading (8 40 1)
    hex (10 9 14 15 26 25 30 31) (10 80 1) simpleGrading (0.125 40 1)
); 

edges 
( 
    spline 0 3 
        ( 
            (0.000000 75.000000 0.000000) 
            (0.656566 74.996260 0.000000) 
            (1.313131 74.985140 0.000000) 
            (1.969697 74.966792 0.000000) 
            (2.626263 74.941370 0.000000) 
            (3.282828 74.909025 0.000000) 
            (3.939394 74.869909 0.000000) 
            (4.595960 74.824174 0.000000) 
            (5.252525 74.771972 0.000000) 
            (5.909091 74.713457 0.000000) 
            (6.565657 74.648779 0.000000) 
            (7.222222 74.578091 0.000000) 
            (7.878788 74.501545 0.000000) 
            (8.535354 74.419293 0.000000) 
            (9.191919 74.331488 0.000000) 
            (9.848485 74.238281 0.000000) 
            (10.505051 74.139825 0.000000) 
            (11.161616 74.036272 0.000000) 
            (11.818182 73.927774 0.000000) 
            (12.474747 73.814483 0.000000) 
            (13.131313 73.696551 0.000000) 
            (13.787879 73.574131 0.000000) 
            (14.444444 73.447374 0.000000) 
            (15.101010 73.316433 0.000000) 
            (15.757576 73.181460 0.000000) 
            (16.414141 73.042607 0.000000) 
            (17.070707 72.900027 0.000000) 
            (17.727273 72.753870 0.000000) 
            (18.383838 72.604291 0.000000) 
            (19.040404 72.451440 0.000000) 
            (19.696970 72.295470 0.000000) 
            (20.353535 72.136533 0.000000) 
            (21.010101 71.974781 0.000000) 
            (21.666667 71.810366 0.000000) 
            (22.323232 71.643441 0.000000) 
            (22.979798 71.474157 0.000000) 
            (23.636364 71.302667 0.000000) 
            (24.292929 71.129124 0.000000) 
            (24.949495 70.953678 0.000000) 
            (25.606061 70.776482 0.000000) 
            (26.262626 70.597689 0.000000) 
            (26.919192 70.417450 0.000000) 
            (27.575758 70.235918 0.000000) 
            (28.232323 70.053245 0.000000) 
            (28.888889 69.869583 0.000000) 
            (29.545455 69.685084 0.000000) 
            (30.202020 69.499901 0.000000) 
            (30.858586 69.314185 0.000000) 
            (31.515152 69.128088 0.000000) 
            (32.171717 68.941763 0.000000) 
            (32.828283 68.755362 0.000000) 
            (33.484848 68.569038 0.000000) 
            (34.141414 68.382941 0.000000) 
            (34.797980 68.197225 0.000000) 
            (35.454545 68.012041 0.000000) 
            (36.111111 67.827542 0.000000) 
            (36.767677 67.643880 0.000000) 
            (37.424242 67.461207 0.000000) 
            (38.080808 67.279675 0.000000) 
            (38.737374 67.099437 0.000000) 
            (39.393939 66.920644 0.000000) 
            (40.050505 66.743448 0.000000) 
            (40.707071 66.568002 0.000000) 
            (41.363636 66.394458 0.000000) 
            (42.020202 66.222969 0.000000) 
            (42.676768 66.053685 0.000000) 
            (43.333333 65.886760 0.000000) 
            (43.989899 65.722345 0.000000) 
            (44.646465 65.560593 0.000000) 
            (45.303030 65.401656 0.000000) 
            (45.959596 65.245686 0.000000) 
            (46.616162 65.092835 0.000000) 
            (47.272727 64.943255 0.000000) 
            (47.929293 64.797099 0.000000) 
            (48.585859 64.654519 0.000000) 
            (49.242424 64.515666 0.000000) 
            (49.898990 64.380693 0.000000) 
            (50.555556 64.249752 0.000000) 
            (51.212121 64.122995 0.000000) 
            (51.868687 64.000575 0.000000) 
            (52.525253 63.882643 0.000000) 
            (53.181818 63.769352 0.000000) 
            (53.838384 63.660854 0.000000) 
            (54.494949 63.557301 0.000000) 
            (55.151515 63.458845 0.000000) 
            (55.808081 63.365638 0.000000) 
            (56.464646 63.277833 0.000000) 
            (57.121212 63.195581 0.000000) 
            (57.777778 63.119035 0.000000) 
            (58.434343 63.048347 0.000000) 
            (59.090909 62.983669 0.000000) 
            (59.747475 62.925153 0.000000) 
            (60.404040 62.872952 0.000000) 
            (61.060606 62.827217 0.000000) 
            (61.717172 62.788101 0.000000) 
            (62.373737 62.755756 0.000000) 
            (63.030303 62.730333 0.000000) 
            (63.686869 62.711986 0.000000) 
            (64.343434 62.700866 0.000000) 
        ) 
    spline 2 5 
        ( 
            (0.000000 -75.000000 0.000000) 
            (0.656566 -74.996260 0.000000) 
            (1.313131 -74.985140 0.000000) 
            (1.969697 -74.966792 0.000000) 
            (2.626263 -74.941370 0.000000) 
            (3.282828 -74.909025 0.000000) 
            (3.939394 -74.869909 0.000000) 
            (4.595960 -74.824174 0.000000) 
            (5.252525 -74.771972 0.000000) 
            (5.909091 -74.713457 0.000000) 
            (6.565657 -74.648779 0.000000) 
            (7.222222 -74.578091 0.000000) 
            (7.878788 -74.501545 0.000000) 
            (8.535354 -74.419293 0.000000) 
            (9.191919 -74.331488 0.000000) 
            (9.848485 -74.238281 0.000000) 
            (10.505051 -74.139825 0.000000) 
            (11.161616 -74.036272 0.000000) 
            (11.818182 -73.927774 0.000000) 
            (12.474747 -73.814483 0.000000) 
            (13.131313 -73.696551 0.000000) 
            (13.787879 -73.574131 0.000000) 
            (14.444444 -73.447374 0.000000) 
            (15.101010 -73.316433 0.000000) 
            (15.757576 -73.181460 0.000000) 
            (16.414141 -73.042607 0.000000) 
            (17.070707 -72.900027 0.000000) 
            (17.727273 -72.753870 0.000000) 
            (18.383838 -72.604291 0.000000) 
            (19.040404 -72.451440 0.000000) 
            (19.696970 -72.295470 0.000000) 
            (20.353535 -72.136533 0.000000) 
            (21.010101 -71.974781 0.000000) 
            (21.666667 -71.810366 0.000000) 
            (22.323232 -71.643441 0.000000) 
            (22.979798 -71.474157 0.000000) 
            (23.636364 -71.302667 0.000000) 
            (24.292929 -71.129124 0.000000) 
            (24.949495 -70.953678 0.000000) 
            (25.606061 -70.776482 0.000000) 
            (26.262626 -70.597689 0.000000) 
            (26.919192 -70.417450 0.000000) 
            (27.575758 -70.235918 0.000000) 
            (28.232323 -70.053245 0.000000) 
            (28.888889 -69.869583 0.000000) 
            (29.545455 -69.685084 0.000000) 
            (30.202020 -69.499901 0.000000) 
            (30.858586 -69.314185 0.000000) 
            (31.515152 -69.128088 0.000000) 
            (32.171717 -68.941763 0.000000) 
            (32.828283 -68.755362 0.000000) 
            (33.484848 -68.569038 0.000000) 
            (34.141414 -68.382941 0.000000) 
            (34.797980 -68.197225 0.000000) 
            (35.454545 -68.012041 0.000000) 
            (36.111111 -67.827542 0.000000) 
            (36.767677 -67.643880 0.000000) 
            (37.424242 -67.461207 0.000000) 
            (38.080808 -67.279675 0.000000) 
            (38.737374 -67.099437 0.000000) 
            (39.393939 -66.920644 0.000000) 
            (40.050505 -66.743448 0.000000) 
            (40.707071 -66.568002 0.000000) 
            (41.363636 -66.394458 0.000000) 
            (42.020202 -66.222969 0.000000) 
            (42.676768 -66.053685 0.000000) 
            (43.333333 -65.886760 0.000000) 
            (43.989899 -65.722345 0.000000) 
            (44.646465 -65.560593 0.000000) 
            (45.303030 -65.401656 0.000000) 
            (45.959596 -65.245686 0.000000) 
            (46.616162 -65.092835 0.000000) 
            (47.272727 -64.943255 0.000000) 
            (47.929293 -64.797099 0.000000) 
            (48.585859 -64.654519 0.000000) 
            (49.242424 -64.515666 0.000000) 
            (49.898990 -64.380693 0.000000) 
            (50.555556 -64.249752 0.000000) 
            (51.212121 -64.122995 0.000000) 
            (51.868687 -64.000575 0.000000) 
            (52.525253 -63.882643 0.000000) 
            (53.181818 -63.769352 0.000000) 
            (53.838384 -63.660854 0.000000) 
            (54.494949 -63.557301 0.000000) 
            (55.151515 -63.458845 0.000000) 
            (55.808081 -63.365638 0.000000) 
            (56.464646 -63.277833 0.000000) 
            (57.121212 -63.195581 0.000000) 
            (57.777778 -63.119035 0.000000) 
            (58.434343 -63.048347 0.000000) 
            (59.090909 -62.983669 0.000000) 
            (59.747475 -62.925153 0.000000) 
            (60.404040 -62.872952 0.000000) 
            (61.060606 -62.827217 0.000000) 
            (61.717172 -62.788101 0.000000) 
            (62.373737 -62.755756 0.000000) 
            (63.030303 -62.730333 0.000000) 
            (63.686869 -62.711986 0.000000) 
            (64.343434 -62.700866 0.000000) 
        ) 
    spline 3 7 
        ( 
            (130.000000 62.697126 0.000000) 
            (131.873206 62.884281 0.000000) 
            (135.253216 63.216953 0.000000) 
            (139.363484 63.618366 0.000000) 
            (144.060145 64.075059 0.000000) 
            (149.270979 64.580371 0.000000) 
            (154.953281 65.130420 0.000000) 
            (161.079920 65.722789 0.000000) 
            (167.633183 66.355946 0.000000) 
            (174.601610 67.028951 0.000000) 
            (181.926995 67.699519 0.000000) 
            (189.584840 68.361928 0.000000) 
            (197.574242 69.012818 0.000000) 
            (205.895036 69.648895 0.000000) 
            (214.547706 70.266907 0.000000) 
            (223.533312 70.863619 0.000000) 
            (232.853432 71.435805 0.000000) 
            (242.510115 71.980228 0.000000) 
            (252.505842 72.493633 0.000000) 
            (262.843492 72.972734 0.000000) 
            (273.526314 73.414207 0.000000) 
            (284.557909 73.814678 0.000000) 
            (295.942205 74.170721 0.000000) 
            (307.683447 74.478846 0.000000) 
            (319.786178 74.735499 0.000000) 
            (332.255237 74.937055 0.000000) 
            (345.095740 75.079815 0.000000) 
        ) 
    spline 5 9 
        ( 
            (130.000000 -62.697126 0.000000) 
            (131.873206 -62.884281 0.000000) 
            (135.253216 -63.216953 0.000000) 
            (139.363484 -63.618366 0.000000) 
            (144.060145 -64.075059 0.000000) 
            (149.270979 -64.580371 0.000000) 
            (154.953281 -65.130420 0.000000) 
            (161.079920 -65.722789 0.000000) 
            (167.633183 -66.355946 0.000000) 
            (174.601610 -67.028951 0.000000) 
            (181.926995 -67.699519 0.000000) 
            (189.584840 -68.361928 0.000000) 
            (197.574242 -69.012818 0.000000) 
            (205.895036 -69.648895 0.000000) 
            (214.547706 -70.266907 0.000000) 
            (223.533312 -70.863619 0.000000) 
            (232.853432 -71.435805 0.000000) 
            (242.510115 -71.980228 0.000000) 
            (252.505842 -72.493633 0.000000) 
            (262.843492 -72.972734 0.000000) 
            (273.526314 -73.414207 0.000000) 
            (284.557909 -73.814678 0.000000) 
            (295.942205 -74.170721 0.000000) 
            (307.683447 -74.478846 0.000000) 
            (319.786178 -74.735499 0.000000) 
            (332.255237 -74.937055 0.000000) 
            (345.095740 -75.079815 0.000000) 
        ) 
    spline 16 19 
        ( 
            (0.000000 75.000000 -0.100000) 
            (0.656566 74.996260 -0.100000) 
            (1.313131 74.985140 -0.100000) 
            (1.969697 74.966792 -0.100000) 
            (2.626263 74.941370 -0.100000) 
            (3.282828 74.909025 -0.100000) 
            (3.939394 74.869909 -0.100000) 
            (4.595960 74.824174 -0.100000) 
            (5.252525 74.771972 -0.100000) 
            (5.909091 74.713457 -0.100000) 
            (6.565657 74.648779 -0.100000) 
            (7.222222 74.578091 -0.100000) 
            (7.878788 74.501545 -0.100000) 
            (8.535354 74.419293 -0.100000) 
            (9.191919 74.331488 -0.100000) 
            (9.848485 74.238281 -0.100000) 
            (10.505051 74.139825 -0.100000) 
            (11.161616 74.036272 -0.100000) 
            (11.818182 73.927774 -0.100000) 
            (12.474747 73.814483 -0.100000) 
            (13.131313 73.696551 -0.100000) 
            (13.787879 73.574131 -0.100000) 
            (14.444444 73.447374 -0.100000) 
            (15.101010 73.316433 -0.100000) 
            (15.757576 73.181460 -0.100000) 
            (16.414141 73.042607 -0.100000) 
            (17.070707 72.900027 -0.100000) 
            (17.727273 72.753870 -0.100000) 
            (18.383838 72.604291 -0.100000) 
            (19.040404 72.451440 -0.100000) 
            (19.696970 72.295470 -0.100000) 
            (20.353535 72.136533 -0.100000) 
            (21.010101 71.974781 -0.100000) 
            (21.666667 71.810366 -0.100000) 
            (22.323232 71.643441 -0.100000) 
            (22.979798 71.474157 -0.100000) 
            (23.636364 71.302667 -0.100000) 
            (24.292929 71.129124 -0.100000) 
            (24.949495 70.953678 -0.100000) 
            (25.606061 70.776482 -0.100000) 
            (26.262626 70.597689 -0.100000) 
            (26.919192 70.417450 -0.100000) 
            (27.575758 70.235918 -0.100000) 
            (28.232323 70.053245 -0.100000) 
            (28.888889 69.869583 -0.100000) 
            (29.545455 69.685084 -0.100000) 
            (30.202020 69.499901 -0.100000) 
            (30.858586 69.314185 -0.100000) 
            (31.515152 69.128088 -0.100000) 
            (32.171717 68.941763 -0.100000) 
            (32.828283 68.755362 -0.100000) 
            (33.484848 68.569038 -0.100000) 
            (34.141414 68.382941 -0.100000) 
            (34.797980 68.197225 -0.100000) 
            (35.454545 68.012041 -0.100000) 
            (36.111111 67.827542 -0.100000) 
            (36.767677 67.643880 -0.100000) 
            (37.424242 67.461207 -0.100000) 
            (38.080808 67.279675 -0.100000) 
            (38.737374 67.099437 -0.100000) 
            (39.393939 66.920644 -0.100000) 
            (40.050505 66.743448 -0.100000) 
            (40.707071 66.568002 -0.100000) 
            (41.363636 66.394458 -0.100000) 
            (42.020202 66.222969 -0.100000) 
            (42.676768 66.053685 -0.100000) 
            (43.333333 65.886760 -0.100000) 
            (43.989899 65.722345 -0.100000) 
            (44.646465 65.560593 -0.100000) 
            (45.303030 65.401656 -0.100000) 
            (45.959596 65.245686 -0.100000) 
            (46.616162 65.092835 -0.100000) 
            (47.272727 64.943255 -0.100000) 
            (47.929293 64.797099 -0.100000) 
            (48.585859 64.654519 -0.100000) 
            (49.242424 64.515666 -0.100000) 
            (49.898990 64.380693 -0.100000) 
            (50.555556 64.249752 -0.100000) 
            (51.212121 64.122995 -0.100000) 
            (51.868687 64.000575 -0.100000) 
            (52.525253 63.882643 -0.100000) 
            (53.181818 63.769352 -0.100000) 
            (53.838384 63.660854 -0.100000) 
            (54.494949 63.557301 -0.100000) 
            (55.151515 63.458845 -0.100000) 
            (55.808081 63.365638 -0.100000) 
            (56.464646 63.277833 -0.100000) 
            (57.121212 63.195581 -0.100000) 
            (57.777778 63.119035 -0.100000) 
            (58.434343 63.048347 -0.100000) 
            (59.090909 62.983669 -0.100000) 
            (59.747475 62.925153 -0.100000) 
            (60.404040 62.872952 -0.100000) 
            (61.060606 62.827217 -0.100000) 
            (61.717172 62.788101 -0.100000) 
            (62.373737 62.755756 -0.100000) 
            (63.030303 62.730333 -0.100000) 
            (63.686869 62.711986 -0.100000) 
            (64.343434 62.700866 -0.100000) 
        ) 
    spline 18 21 
        ( 
            (0.000000 -75.000000 -0.100000) 
            (0.656566 -74.996260 -0.100000) 
            (1.313131 -74.985140 -0.100000) 
            (1.969697 -74.966792 -0.100000) 
            (2.626263 -74.941370 -0.100000) 
            (3.282828 -74.909025 -0.100000) 
            (3.939394 -74.869909 -0.100000) 
            (4.595960 -74.824174 -0.100000) 
            (5.252525 -74.771972 -0.100000) 
            (5.909091 -74.713457 -0.100000) 
            (6.565657 -74.648779 -0.100000) 
            (7.222222 -74.578091 -0.100000) 
            (7.878788 -74.501545 -0.100000) 
            (8.535354 -74.419293 -0.100000) 
            (9.191919 -74.331488 -0.100000) 
            (9.848485 -74.238281 -0.100000) 
            (10.505051 -74.139825 -0.100000) 
            (11.161616 -74.036272 -0.100000) 
            (11.818182 -73.927774 -0.100000) 
            (12.474747 -73.814483 -0.100000) 
            (13.131313 -73.696551 -0.100000) 
            (13.787879 -73.574131 -0.100000) 
            (14.444444 -73.447374 -0.100000) 
            (15.101010 -73.316433 -0.100000) 
            (15.757576 -73.181460 -0.100000) 
            (16.414141 -73.042607 -0.100000) 
            (17.070707 -72.900027 -0.100000) 
            (17.727273 -72.753870 -0.100000) 
            (18.383838 -72.604291 -0.100000) 
            (19.040404 -72.451440 -0.100000) 
            (19.696970 -72.295470 -0.100000) 
            (20.353535 -72.136533 -0.100000) 
            (21.010101 -71.974781 -0.100000) 
            (21.666667 -71.810366 -0.100000) 
            (22.323232 -71.643441 -0.100000) 
            (22.979798 -71.474157 -0.100000) 
            (23.636364 -71.302667 -0.100000) 
            (24.292929 -71.129124 -0.100000) 
            (24.949495 -70.953678 -0.100000) 
            (25.606061 -70.776482 -0.100000) 
            (26.262626 -70.597689 -0.100000) 
            (26.919192 -70.417450 -0.100000) 
            (27.575758 -70.235918 -0.100000) 
            (28.232323 -70.053245 -0.100000) 
            (28.888889 -69.869583 -0.100000) 
            (29.545455 -69.685084 -0.100000) 
            (30.202020 -69.499901 -0.100000) 
            (30.858586 -69.314185 -0.100000) 
            (31.515152 -69.128088 -0.100000) 
            (32.171717 -68.941763 -0.100000) 
            (32.828283 -68.755362 -0.100000) 
            (33.484848 -68.569038 -0.100000) 
            (34.141414 -68.382941 -0.100000) 
            (34.797980 -68.197225 -0.100000) 
            (35.454545 -68.012041 -0.100000) 
            (36.111111 -67.827542 -0.100000) 
            (36.767677 -67.643880 -0.100000) 
            (37.424242 -67.461207 -0.100000) 
            (38.080808 -67.279675 -0.100000) 
            (38.737374 -67.099437 -0.100000) 
            (39.393939 -66.920644 -0.100000) 
            (40.050505 -66.743448 -0.100000) 
            (40.707071 -66.568002 -0.100000) 
            (41.363636 -66.394458 -0.100000) 
            (42.020202 -66.222969 -0.100000) 
            (42.676768 -66.053685 -0.100000) 
            (43.333333 -65.886760 -0.100000) 
            (43.989899 -65.722345 -0.100000) 
            (44.646465 -65.560593 -0.100000) 
            (45.303030 -65.401656 -0.100000) 
            (45.959596 -65.245686 -0.100000) 
            (46.616162 -65.092835 -0.100000) 
            (47.272727 -64.943255 -0.100000) 
            (47.929293 -64.797099 -0.100000) 
            (48.585859 -64.654519 -0.100000) 
            (49.242424 -64.515666 -0.100000) 
            (49.898990 -64.380693 -0.100000) 
            (50.555556 -64.249752 -0.100000) 
            (51.212121 -64.122995 -0.100000) 
            (51.868687 -64.000575 -0.100000) 
            (52.525253 -63.882643 -0.100000) 
            (53.181818 -63.769352 -0.100000) 
            (53.838384 -63.660854 -0.100000) 
            (54.494949 -63.557301 -0.100000) 
            (55.151515 -63.458845 -0.100000) 
            (55.808081 -63.365638 -0.100000) 
            (56.464646 -63.277833 -0.100000) 
            (57.121212 -63.195581 -0.100000) 
            (57.777778 -63.119035 -0.100000) 
            (58.434343 -63.048347 -0.100000) 
            (59.090909 -62.983669 -0.100000) 
            (59.747475 -62.925153 -0.100000) 
            (60.404040 -62.872952 -0.100000) 
            (61.060606 -62.827217 -0.100000) 
            (61.717172 -62.788101 -0.100000) 
            (62.373737 -62.755756 -0.100000) 
            (63.030303 -62.730333 -0.100000) 
            (63.686869 -62.711986 -0.100000) 
            (64.343434 -62.700866 -0.100000) 
        ) 
    spline 19 23 
        ( 
            (130.000000 62.697126 -0.100000) 
            (131.873206 62.884281 -0.100000) 
            (135.253216 63.216953 -0.100000) 
            (139.363484 63.618366 -0.100000) 
            (144.060145 64.075059 -0.100000) 
            (149.270979 64.580371 -0.100000) 
            (154.953281 65.130420 -0.100000) 
            (161.079920 65.722789 -0.100000) 
            (167.633183 66.355946 -0.100000) 
            (174.601610 67.028951 -0.100000) 
            (181.926995 67.699519 -0.100000) 
            (189.584840 68.361928 -0.100000) 
            (197.574242 69.012818 -0.100000) 
            (205.895036 69.648895 -0.100000) 
            (214.547706 70.266907 -0.100000) 
            (223.533312 70.863619 -0.100000) 
            (232.853432 71.435805 -0.100000) 
            (242.510115 71.980228 -0.100000) 
            (252.505842 72.493633 -0.100000) 
            (262.843492 72.972734 -0.100000) 
            (273.526314 73.414207 -0.100000) 
            (284.557909 73.814678 -0.100000) 
            (295.942205 74.170721 -0.100000) 
            (307.683447 74.478846 -0.100000) 
            (319.786178 74.735499 -0.100000) 
            (332.255237 74.937055 -0.100000) 
            (345.095740 75.079815 -0.100000) 
        ) 
    spline 21 25 
        ( 
            (130.000000 -62.697126 -0.100000) 
            (131.873206 -62.884281 -0.100000) 
            (135.253216 -63.216953 -0.100000) 
            (139.363484 -63.618366 -0.100000) 
            (144.060145 -64.075059 -0.100000) 
            (149.270979 -64.580371 -0.100000) 
            (154.953281 -65.130420 -0.100000) 
            (161.079920 -65.722789 -0.100000) 
            (167.633183 -66.355946 -0.100000) 
            (174.601610 -67.028951 -0.100000) 
            (181.926995 -67.699519 -0.100000) 
            (189.584840 -68.361928 -0.100000) 
            (197.574242 -69.012818 -0.100000) 
            (205.895036 -69.648895 -0.100000) 
            (214.547706 -70.266907 -0.100000) 
            (223.533312 -70.863619 -0.100000) 
            (232.853432 -71.435805 -0.100000) 
            (242.510115 -71.980228 -0.100000) 
            (252.505842 -72.493633 -0.100000) 
            (262.843492 -72.972734 -0.100000) 
            (273.526314 -73.414207 -0.100000) 
            (284.557909 -73.814678 -0.100000) 
            (295.942205 -74.170721 -0.100000) 
            (307.683447 -74.478846 -0.100000) 
            (319.786178 -74.735499 -0.100000) 
            (332.255237 -74.937055 -0.100000) 
            (345.095740 -75.079815 -0.100000) 
        ) 
); 

boundary 
( 
    inlet 
    { 
        type patch; 
        faces 
        ( 
            (0 1 17 16) 
            (1 2 18 17) 
        ); 
    } 

    outlet 
    { 
        type patch; 
        faces 
        ( 
            (6 11 27 22) 
            (11 12 28 27) 
            (12 13 29 28) 
            (13 14 30 29) 
            (14 15 31 30) 
            (10 15 31 26) 
        ); 
    } 

    fixedWalls
    {
        type wall;
        faces
        (
            (0 3 19 16)
            (2 5 21 18)
            (3 7 23 19)
            (5 9 25 21)
            (6 7 23 22)
            (9 10 26 25)
        );
    }
    fab
    {
        type empty;
        faces
        (
		(0 1 4 3)
		(1 2 5 4)
		(3 4 8 7)
		(4 5 9 8)
		(6 7 12 11)
		(7 8 13 12)
		(8 9 14 13)
		(9 10 15 14)
		(16 17 20 19)
		(17 18 21 20)
		(19 20 24 23)
		(20 21 25 24)
		(22 23 28 27)
		(23 24 29 28)
		(24 25 30 29)
		(25 26 31 30)
        );
    }
);

mergePatchPairs 
( 
); 
 
// ************************************************************************* // 
